matpower-plain/case136ma.m
function mpc = case136ma
%CASE136MA  Power flow data for 135 bus distribution system from Mantovani, et al
%   Please see CASEFORMAT for details on the case file format.
%
%   Data from ...
%       Mantovani JRS, Casari F, Romero RA (2000) Reconfiguração de sistemas
%       de distribuição radiais utilizando o critério de queda de tensão. Rev
%       Bras Controle Automação - SBA 11:150-159.
%
%   Plain-data copy of benchmark-grids/matpower/case136ma.m: the file's
%   MATLAB statements (below, as they were) are evaluated by
%   scripts/evaluate_matpower_code.py and the matrices hold the result.
%     Vbase = mpc.bus(1, BASE_KV) * 1e3;
%     Sbase = mpc.baseMVA * 1e6;
%     mpc.branch(:, [BR_R BR_X]) = mpc.branch(:, [BR_R BR_X]) / (Vbase^2 / Sbase);
%     mpc.bus(:, [PD, QD]) = mpc.bus(:, [PD, QD]) / 1e3;

%% MATPOWER Case Format : Version 2
mpc.version = '2';

mpc.baseMVA = 10;

mpc.bus = [
	1	3	0	0	0	0	1	1	0	13.8	1	1.05	0.95;
	2	1	0	0	0	0	1	1	0	13.8	1	1.05	0.95;
	3	1	0.04778	0.019010000000000003	0	0	1	1	0	13.8	1	1.05	0.95;
	4	1	0.04255	0.01693	0	0	1	1	0	13.8	1	1.05	0.95;
	5	1	0.08702	0.03462	0	0	1	1	0	13.8	1	1.05	0.95;
	6	1	0.31131000000000003	0.123855	0	0	1	1	0	13.8	1	1.05	0.95;
	7	1	0.148869	0.05923	0	0	1	1	0	13.8	1	1.05	0.95;
	8	1	0.238672	0.09495999999999999	0	0	1	1	0	13.8	1	1.05	0.95;
	9	1	0.0623	0.02479	0	0	1	1	0	13.8	1	1.05	0.95;
	10	1	0.124598	0.04957	0	0	1	1	0	13.8	1	1.05	0.95;
	11	1	0.14017500000000002	0.05577000000000001	0	0	1	1	0	13.8	1	1.05	0.95;
	12	1	0.116813	0.04647	0	0	1	1	0	13.8	1	1.05	0.95;
	13	1	0.249203	0.09915	0	0	1	1	0	13.8	1	1.05	0.95;
	14	1	0.291447	0.115952	0	0	1	1	0	13.8	1	1.05	0.95;
	15	1	0.30372000000000005	0.120835	0	0	1	1	0	13.8	1	1.05	0.95;
	16	1	0.215396	0.0857	0	0	1	1	0	13.8	1	1.05	0.95;
	17	1	0.198586	0.07901000000000001	0	0	1	1	0	13.8	1	1.05	0.95;
	18	1	0	0	0	0	1	1	0	13.8	1	1.05	0.95;
	19	1	0	0	0	0	1	1	0	13.8	1	1.05	0.95;
	20	1	0	0	0	0	1	1	0	13.8	1	1.05	0.95;
	21	1	0.03013	0.01473	0	0	1	1	0	13.8	1	1.05	0.95;
	22	1	0.230972	0.11292	0	0	1	1	0	13.8	1	1.05	0.95;
	23	1	0.06026	0.02946	0	0	1	1	0	13.8	1	1.05	0.95;
	24	1	0.230972	0.11292	0	0	1	1	0	13.8	1	1.05	0.95;
	25	1	0.120507	0.05892	0	0	1	1	0	13.8	1	1.05	0.95;
	26	1	0	0	0	0	1	1	0	13.8	1	1.05	0.95;
	27	1	0.056979999999999996	0.02786	0	0	1	1	0	13.8	1	1.05	0.95;
	28	1	0.364665	0.17828100000000002	0	0	1	1	0	13.8	1	1.05	0.95;
	29	1	0	0	0	0	1	1	0	13.8	1	1.05	0.95;
	30	1	0.12464700000000001	0.06094	0	0	1	1	0	13.8	1	1.05	0.95;
	31	1	0.056979999999999996	0.02786	0	0	1	1	0	13.8	1	1.05	0.95;
	32	1	0	0	0	0	1	1	0	13.8	1	1.05	0.95;
	33	1	0.08547	0.04179	0	0	1	1	0	13.8	1	1.05	0.95;
	34	1	0	0	0	0	1	1	0	13.8	1	1.05	0.95;
	35	1	0.396735	0.19396000000000002	0	0	1	1	0	13.8	1	1.05	0.95;
	36	1	0	0	0	0	1	1	0	13.8	1	1.05	0.95;
	37	1	0.18115199999999998	0.08856	0	0	1	1	0	13.8	1	1.05	0.95;
	38	1	0.242172	0.118395	0	0	1	1	0	13.8	1	1.05	0.95;
	39	1	0.07532	0.03682	0	0	1	1	0	13.8	1	1.05	0.95;
	40	1	0	0	0	0	1	1	0	13.8	1	1.05	0.95;
	41	1	0.00125	0.0005300000000000001	0	0	1	1	0	13.8	1	1.05	0.95;
	42	1	0.0062699999999999995	0.00266	0	0	1	1	0	13.8	1	1.05	0.95;
	43	1	0	0	0	0	1	1	0	13.8	1	1.05	0.95;
	44	1	0.11788	0.04997	0	0	1	1	0	13.8	1	1.05	0.95;
	45	1	0.06267	0.02657	0	0	1	1	0	13.8	1	1.05	0.95;
	46	1	0.172285	0.07303	0	0	1	1	0	13.8	1	1.05	0.95;
	47	1	0.458556	0.194388	0	0	1	1	0	13.8	1	1.05	0.95;
	48	1	0.262962	0.111473	0	0	1	1	0	13.8	1	1.05	0.95;
	49	1	0.235761	0.09994	0	0	1	1	0	13.8	1	1.05	0.95;
	50	1	0	0	0	0	1	1	0	13.8	1	1.05	0.95;
	51	1	0.109215	0.0463	0	0	1	1	0	13.8	1	1.05	0.95;
	52	1	0	0	0	0	1	1	0	13.8	1	1.05	0.95;
	53	1	0.07281	0.03087	0	0	1	1	0	13.8	1	1.05	0.95;
	54	1	0.258473	0.10957	0	0	1	1	0	13.8	1	1.05	0.95;
	55	1	0.06917000000000001	0.029320000000000002	0	0	1	1	0	13.8	1	1.05	0.95;
	56	1	0.021840000000000002	0.00926	0	0	1	1	0	13.8	1	1.05	0.95;
	57	1	0	0	0	0	1	1	0	13.8	1	1.05	0.95;
	58	1	0.020530000000000003	0.0087	0	0	1	1	0	13.8	1	1.05	0.95;
	59	1	0.15054800000000002	0.06382	0	0	1	1	0	13.8	1	1.05	0.95;
	60	1	0.22068700000000002	0.09355	0	0	1	1	0	13.8	1	1.05	0.95;
	61	1	0.09238	0.03916	0	0	1	1	0	13.8	1	1.05	0.95;
	62	1	0	0	0	0	1	1	0	13.8	1	1.05	0.95;
	63	1	0.226693	0.09609999999999999	0	0	1	1	0	13.8	1	1.05	0.95;
	64	1	0	0	0	0	1	1	0	13.8	1	1.05	0.95;
	65	1	0.294016	0.11697400000000001	0	0	1	1	0	13.8	1	1.05	0.95;
	66	1	0.08302	0.033030000000000004	0	0	1	1	0	13.8	1	1.05	0.95;
	67	1	0.08302	0.033030000000000004	0	0	1	1	0	13.8	1	1.05	0.95;
	68	1	0.10377	0.04129	0	0	1	1	0	13.8	1	1.05	0.95;
	69	1	0.17640799999999998	0.07018	0	0	1	1	0	13.8	1	1.05	0.95;
	70	1	0.08302	0.033030000000000004	0	0	1	1	0	13.8	1	1.05	0.95;
	71	1	0.217917	0.0867	0	0	1	1	0	13.8	1	1.05	0.95;
	72	1	0.023289999999999998	0.00927	0	0	1	1	0	13.8	1	1.05	0.95;
	73	1	0.00508	0.00202	0	0	1	1	0	13.8	1	1.05	0.95;
	74	1	0.07264	0.0289	0	0	1	1	0	13.8	1	1.05	0.95;
	75	1	0.40599	0.161523	0	0	1	1	0	13.8	1	1.05	0.95;
	76	1	0	0	0	0	1	1	0	13.8	1	1.05	0.95;
	77	1	0.10018200000000001	0.04247	0	0	1	1	0	13.8	1	1.05	0.95;
	78	1	0.142523	0.06042	0	0	1	1	0	13.8	1	1.05	0.95;
	79	1	0.09604000000000001	0.04071	0	0	1	1	0	13.8	1	1.05	0.95;
	80	1	0.300454	0.127366	0	0	1	1	0	13.8	1	1.05	0.95;
	81	1	0.141238	0.05987	0	0	1	1	0	13.8	1	1.05	0.95;
	82	1	0.279847	0.118631	0	0	1	1	0	13.8	1	1.05	0.95;
	83	1	0.08731	0.03701	0	0	1	1	0	13.8	1	1.05	0.95;
	84	1	0.24384899999999998	0.10337099999999999	0	0	1	1	0	13.8	1	1.05	0.95;
	85	1	0.24775	0.10502500000000001	0	0	1	1	0	13.8	1	1.05	0.95;
	86	1	0	0	0	0	1	1	0	13.8	1	1.05	0.95;
	87	1	0.08988	0.0381	0	0	1	1	0	13.8	1	1.05	0.95;
	88	1	1.13728	0.48210800000000004	0	0	1	1	0	13.8	1	1.05	0.95;
	89	1	0.458339	0.194296	0	0	1	1	0	13.8	1	1.05	0.95;
	90	1	0.385197	0.16329	0	0	1	1	0	13.8	1	1.05	0.95;
	91	1	0	0	0	0	1	1	0	13.8	1	1.05	0.95;
	92	1	0.07961	0.03375	0	0	1	1	0	13.8	1	1.05	0.95;
	93	1	0.08731	0.03701	0	0	1	1	0	13.8	1	1.05	0.95;
	94	1	0	0	0	0	1	1	0	13.8	1	1.05	0.95;
	95	1	0.074	0.03137	0	0	1	1	0	13.8	1	1.05	0.95;
	96	1	0.23205	0.09837000000000001	0	0	1	1	0	13.8	1	1.05	0.95;
	97	1	0.141819	0.06012	0	0	1	1	0	13.8	1	1.05	0.95;
	98	1	0	0	0	0	1	1	0	13.8	1	1.05	0.95;
	99	1	0.07645	0.032409999999999994	0	0	1	1	0	13.8	1	1.05	0.95;
	100	1	0	0	0	0	1	1	0	13.8	1	1.05	0.95;
	101	1	0.051320000000000005	0.02176	0	0	1	1	0	13.8	1	1.05	0.95;
	102	1	0.05987	0.02538	0	0	1	1	0	13.8	1	1.05	0.95;
	103	1	0.00907	0.00384	0	0	1	1	0	13.8	1	1.05	0.95;
	104	1	0.00209	0.0008900000000000001	0	0	1	1	0	13.8	1	1.05	0.95;
	105	1	0.016735	0.00709	0	0	1	1	0	13.8	1	1.05	0.95;
	106	1	1.506522	0.638634	0	0	1	1	0	13.8	1	1.05	0.95;
	107	1	0.31302300000000005	0.13269399999999998	0	0	1	1	0	13.8	1	1.05	0.95;
	108	1	0.07983	0.03384	0	0	1	1	0	13.8	1	1.05	0.95;
	109	1	0.051320000000000005	0.02176	0	0	1	1	0	13.8	1	1.05	0.95;
	110	1	0	0	0	0	1	1	0	13.8	1	1.05	0.95;
	111	1	0.202435	0.08582	0	0	1	1	0	13.8	1	1.05	0.95;
	112	1	0.06082	0.02578	0	0	1	1	0	13.8	1	1.05	0.95;
	113	1	0.04562	0.01934	0	0	1	1	0	13.8	1	1.05	0.95;
	114	1	0	0	0	0	1	1	0	13.8	1	1.05	0.95;
	115	1	0.15707	0.06658	0	0	1	1	0	13.8	1	1.05	0.95;
	116	1	0	0	0	0	1	1	0	13.8	1	1.05	0.95;
	117	1	0.250148	0.106041	0	0	1	1	0	13.8	1	1.05	0.95;
	118	1	0	0	0	0	1	1	0	13.8	1	1.05	0.95;
	119	1	0.06981	0.02959	0	0	1	1	0	13.8	1	1.05	0.95;
	120	1	0.03207	0.0136	0	0	1	1	0	13.8	1	1.05	0.95;
	121	1	0.06108	0.02589	0	0	1	1	0	13.8	1	1.05	0.95;
	122	1	0	0	0	0	1	1	0	13.8	1	1.05	0.95;
	123	1	0.09462000000000001	0.046259999999999996	0	0	1	1	0	13.8	1	1.05	0.95;
	124	1	0.04986	0.02438	0	0	1	1	0	13.8	1	1.05	0.95;
	125	1	0.12316400000000001	0.06021	0	0	1	1	0	13.8	1	1.05	0.95;
	126	1	0.07834999999999999	0.0383	0	0	1	1	0	13.8	1	1.05	0.95;
	127	1	0.145475	0.07112	0	0	1	1	0	13.8	1	1.05	0.95;
	128	1	0.02137	0.01045	0	0	1	1	0	13.8	1	1.05	0.95;
	129	1	0.07479000000000001	0.03656	0	0	1	1	0	13.8	1	1.05	0.95;
	130	1	0.227926	0.111431	0	0	1	1	0	13.8	1	1.05	0.95;
	131	1	0.03561	0.017410000000000002	0	0	1	1	0	13.8	1	1.05	0.95;
	132	1	0.249295	0.121877	0	0	1	1	0	13.8	1	1.05	0.95;
	133	1	0.316722	0.154842	0	0	1	1	0	13.8	1	1.05	0.95;
	134	1	0.33381700000000003	0.163199	0	0	1	1	0	13.8	1	1.05	0.95;
	135	1	0.249295	0.121877	0	0	1	1	0	13.8	1	1.05	0.95;
	136	1	0	0	0	0	1	1	0	13.8	1	1.05	0.95;
];

mpc.gen = [
	1	0	0	10	-10	1	100	1	10	0	0	0	0	0	0	0	0	0	0	0	0;
];

mpc.branch = [
	1	2	0.017435937828187354	0.04025047258979206	0	100	100	100	0	0	1	-360	360;
	2	3	9.87187565637471e-05	0.000227368199957992	0	100	100	100	0	0	1	-360	360;
	3	4	0.011722327242176013	0.027061016593152697	0	100	100	100	0	0	1	-360	360;
	4	5	0.005221067002730518	0.012052614996849401	0	100	100	100	0	0	1	-360	360;
	5	6	0.008176328502415458	0.018874711195127073	0	100	100	100	0	0	1	-360	360;
	6	7	0.008570153329132534	0.01978418399495904	0	100	100	100	0	0	1	-360	360;
	7	8	0.006009241755933627	0.013871560596513337	0	100	100	100	0	0	1	-360	360;
	7	9	0.0029799411888258766	0.002975215290905272	0	100	100	100	0	0	1	-360	360;
	9	10	0.027370300357067844	0.014397185465238393	0	100	100	100	0	0	1	-360	360;
	9	11	0.005711510186935518	0.005702583490863264	0	100	100	100	0	0	1	-360	360;
	11	12	0.02090054610375971	0.0109940138626339	0	100	100	100	0	0	1	-360	360;
	11	13	0.048174753203108586	0.016524364629279562	0	100	100	100	0	0	1	-360	360;
	11	14	0.00620825456836799	0.00619880277252678	0	100	100	100	0	0	1	-360	360;
	14	15	0.02637471119512707	0.013873660995589161	0	100	100	100	0	0	1	-360	360;
	14	16	0.0029799411888258766	0.002975215290905272	0	100	100	100	0	0	1	-360	360;
	16	17	0.015426906112161309	0.008114891829447595	0	100	100	100	0	0	1	-360	360;
	1	18	0.017435937828187354	0.04025047258979206	0	100	100	100	0	0	1	-360	360;
	18	19	9.87187565637471e-05	0.000227368199957992	0	100	100	100	0	0	1	-360	360;
	19	20	0.011722327242176013	0.027061016593152697	0	100	100	100	0	0	1	-360	360;
	20	21	0.005713610586011342	0.01318945599663936	0	100	100	100	0	0	1	-360	360;
	21	22	0.03732304137786179	0.019632430161730725	0	100	100	100	0	0	1	-360	360;
	21	23	0.009555240495694181	0.022058391094307916	0	100	100	100	0	0	1	-360	360;
	23	24	0.015924175593362736	0.008376391514387732	0	100	100	100	0	0	1	-360	360;
	23	25	0.0012807183364839318	0.0029563116992228525	0	100	100	100	0	0	1	-360	360;
	25	26	0.0023639991598403695	0.00545788699852972	0	100	100	100	0	0	1	-360	360;
	26	27	0.0009850871665616466	0.0022742070993488762	0	100	100	100	0	0	1	-360	360;
	27	28	0.00620825456836799	0.00619880277252678	0	100	100	100	0	0	1	-360	360;
	28	29	0.0012418609535811804	0.0012397605545053558	0	100	100	100	0	0	1	-360	360;
	29	30	0.00995274102079395	0.0052352446964923334	0	100	100	100	0	0	1	-360	360;
	30	31	0.02090054610375971	0.0109940138626339	0	100	100	100	0	0	1	-360	360;
	29	32	0.0029799411888258766	0.002975215290905272	0	100	100	100	0	0	1	-360	360;
	32	33	0.004976370510396975	0.0026176223482461667	0	100	100	100	0	0	1	-360	360;
	33	34	0.021896135265700483	0.011517538332283134	0	100	100	100	0	0	1	-360	360;
	34	35	0.005971434572568788	0.0031411468178954	0	100	100	100	0	0	1	-360	360;
	32	36	0.003972904851921865	0.003967128754463348	0	100	100	100	0	0	1	-360	360;
	36	37	0.019407687460617516	0.010208989708044527	0	100	100	100	0	0	1	-360	360;
	37	38	0.013934047469019111	0.007329342575089267	0	100	100	100	0	0	1	-360	360;
	36	39	0.0029799411888258766	0.002975215290905272	0	100	100	100	0	0	1	-360	360;
	1	40	0.017435937828187354	0.04025047258979206	0	100	100	100	0	0	1	-360	360;
	40	41	0.0062061541692921655	0.014326296996429322	0	100	100	100	0	0	1	-360	360;
	41	42	0.15558076034446544	0.0533648393194707	0	100	100	100	0	0	1	-360	360;
	41	43	9.87187565637471e-05	0.000227368199957992	0	100	100	100	0	0	1	-360	360;
	43	44	0.0036447174963243015	0.008414198697752572	0	100	100	100	0	0	1	-360	360;
	44	45	0.042796681369460195	0.02251207729468599	0	100	100	100	0	0	1	-360	360;
	44	46	0.0033490863264020163	0.007731568998109641	0	100	100	100	0	0	1	-360	360;
	46	47	0.006895610165931526	0.01591839949590422	0	100	100	100	0	0	1	-360	360;
	47	48	0.003250892669607225	0.007504200798151649	0	100	100	100	0	0	1	-360	360;
	48	49	0.006009241755933627	0.013871560596513337	0	100	100	100	0	0	1	-360	360;
	49	50	0.014899180844360427	0.014876601554295316	0	100	100	100	0	0	1	-360	360;
	50	51	0.014899180844360427	0.014876601554295316	0	100	100	100	0	0	1	-360	360;
	49	52	0.0023639991598403695	0.00545788699852972	0	100	100	100	0	0	1	-360	360;
	52	53	0.0013789119932787228	0.0031836798991808444	0	100	100	100	0	0	1	-360	360;
	53	54	0.003152173913043478	0.0072768325981936565	0	100	100	100	0	0	1	-360	360;
	54	55	0.0015763495064062172	0.0036384162990968283	0	100	100	100	0	0	1	-360	360;
	55	56	0.0010838059231253936	0.002501575299306868	0	100	100	100	0	0	1	-360	360;
	53	57	0.005713610586011342	0.01318945599663936	0	100	100	100	0	0	1	-360	360;
	57	58	0.013436252888048728	0.0070678428901491275	0	100	100	100	0	0	1	-360	360;
	58	59	0.021896135265700483	0.011517538332283134	0	100	100	100	0	0	1	-360	360;
	59	60	0.02637471119512707	0.013873660995589161	0	100	100	100	0	0	1	-360	360;
	60	61	0.01741755933627389	0.00916194076874606	0	100	100	100	0	0	1	-360	360;
	61	62	0.010947805082965762	0.005758769166141567	0	100	100	100	0	0	1	-360	360;
	48	63	0.007289434992648603	0.016827872295736186	0	100	100	100	0	0	1	-360	360;
	1	64	0.00039382482671707623	0.000909472799831968	0	100	100	100	0	0	1	-360	360;
	64	65	0.014185045158580128	0.032746271791640406	0	100	100	100	0	0	1	-360	360;
	65	66	0.02009556815795001	0.04639046418819576	0	100	100	100	0	0	1	-360	360;
	66	67	0.017337744171392562	0.040023104389834065	0	100	100	100	0	0	1	-360	360;
	67	68	0.017239025414828815	0.03979573618987608	0	100	100	100	0	0	1	-360	360;
	68	69	0.008964503255618567	0.02069365679479101	0	100	100	100	0	0	1	-360	360;
	69	70	0.029360428481411464	0.01544423440453686	0	100	100	100	0	0	1	-360	360;
	69	71	0.003053980256248687	0.007049464398235665	0	100	100	100	0	0	1	-360	360;
	71	72	0.036825246796891406	0.019370930476790588	0	100	100	100	0	0	1	-360	360;
	72	73	0.05374501155219491	0.028270846460827555	0	100	100	100	0	0	1	-360	360;
	71	74	0.0035465238395295104	0.00818683049779458	0	100	100	100	0	0	1	-360	360;
	74	75	0.06949800462087796	0.023837954211300146	0	100	100	100	0	0	1	-360	360;
	1	76	0.0005912623398445704	0.001364209199747952	0	100	100	100	0	0	1	-360	360;
	76	77	0.03831968073934047	0.0884604074774207	0	100	100	100	0	0	1	-360	360;
	77	78	0.01182104599873976	0.02728838479311069	0	100	100	100	0	0	1	-360	360;
	78	79	0.010934677588741861	0.025242070993488762	0	100	100	100	0	0	1	-360	360;
	79	80	0.0024627179164041163	0.0056852551984877125	0	100	100	100	0	0	1	-360	360;
	80	81	0.0325299306868305	0.032481096408317575	0	100	100	100	0	0	1	-360	360;
	81	82	0.017879122033186305	0.017852341944969544	0	100	100	100	0	0	1	-360	360;
	82	83	0.029858223062381853	0.015706259189245956	0	100	100	100	0	0	1	-360	360;
	82	84	0.005711510186935518	0.005702583490863264	0	100	100	100	0	0	1	-360	360;
	84	85	0.029858223062381853	0.015706259189245956	0	100	100	100	0	0	1	-360	360;
	1	86	0.0005912623398445704	0.001364209199747952	0	100	100	100	0	0	1	-360	360;
	86	87	0.02196754883427851	0.05071151018693552	0	100	100	100	0	0	1	-360	360;
	87	88	0.005513022474270111	0.0071628859483301825	0	100	100	100	0	0	1	-360	360;
	87	89	0.02305082965763495	0.05321256038647342	0	100	100	100	0	0	1	-360	360;
	89	90	0.003948750262549885	0.001354232304137786	0	100	100	100	0	0	1	-360	360;
	90	91	0.004039067422810334	0.00932367149758454	0	100	100	100	0	0	1	-360	360;
	91	92	0.017435937828187354	0.04025047258979206	0	100	100	100	0	0	1	-360	360;
	92	93	0.00443289224952741	0.010233144297416508	0	100	100	100	0	0	1	-360	360;
	93	94	0.006994328922495274	0.01614576769586221	0	100	100	100	0	0	1	-360	360;
	94	95	0.015395925225792901	0.015372820835958832	0	100	100	100	0	0	1	-360	360;
	95	96	0.011422495274102079	0.011405692081495482	0	100	100	100	0	0	1	-360	360;
	96	97	0.013905692081495483	0.013885213190506195	0	100	100	100	0	0	1	-360	360;
	94	98	0.005417979416089056	0.012507351396765386	0	100	100	100	0	0	1	-360	360;
	98	99	0.007092522579290064	0.016373135895820203	0	100	100	100	0	0	1	-360	360;
	1	100	0.0004925435832808233	0.0011368409997899599	0	100	100	100	0	0	1	-360	360;
	100	101	0.00886578449905482	0.020466288594833015	0	100	100	100	0	0	1	-360	360;
	101	102	0.0062061541692921655	0.014326296996429322	0	100	100	100	0	0	1	-360	360;
	102	103	0.12004200798151649	0.04117517328292375	0	100	100	100	0	0	1	-360	360;
	102	104	0.023937723167401805	0.055259399285864305	0	100	100	100	0	0	1	-360	360;
	104	105	0.03654694391934467	0.08436725477840788	0	100	100	100	0	0	1	-360	360;
	105	106	0.024035916824196594	0.0554867674858223	0	100	100	100	0	0	1	-360	360;
	106	107	0.010658475110270951	0.01384845620667927	0	100	100	100	0	0	1	-360	360;
	107	108	0.011209829867674858	0.01456469229153539	0	100	100	100	0	0	1	-360	360;
	108	109	0.028863159000210036	0.015182734719596722	0	100	100	100	0	0	1	-360	360;
	109	110	0.02836536441923965	0.014920709934887628	0	100	100	100	0	0	1	-360	360;
	108	111	0.0023892039487502623	0.003103864734299517	0	100	100	100	0	0	1	-360	360;
	111	112	0.024881852551984874	0.01308863684099979	0	100	100	100	0	0	1	-360	360;
	112	113	0.04528512917454316	0.023820625918924594	0	100	100	100	0	0	1	-360	360;
	113	114	0.029858223062381853	0.015706259189245956	0	100	100	100	0	0	1	-360	360;
	109	115	0.04080602814534761	0.021465028355387522	0	100	100	100	0	0	1	-360	360;
	115	116	0.0567307288384793	0.029841419869775256	0	100	100	100	0	0	1	-360	360;
	110	117	0.057725792900651114	0.030364944339424486	0	100	100	100	0	0	1	-360	360;
	117	118	0.024881852551984874	0.01308863684099979	0	100	100	100	0	0	1	-360	360;
	105	119	0.016943394244906533	0.0391136315900021	0	100	100	100	0	0	1	-360	360;
	119	120	0.007683784919134635	0.017737345095568156	0	100	100	100	0	0	1	-360	360;
	120	121	0.00650178533921445	0.01500892669607225	0	100	100	100	0	0	1	-360	360;
	1	122	0.0005912623398445704	0.001364209199747952	0	100	100	100	0	0	1	-360	360;
	122	123	0.03408422600294056	0.07868199957992018	0	100	100	100	0	0	1	-360	360;
	123	124	0.0023639991598403695	0.00545788699852972	0	100	100	100	0	0	1	-360	360;
	124	125	0.027641251837849188	0.009481201428271371	0	100	100	100	0	0	1	-360	360;
	124	126	0.0010838059231253936	0.002501575299306868	0	100	100	100	0	0	1	-360	360;
	126	127	0.02786756983826927	0.014659210249947487	0	100	100	100	0	0	1	-360	360;
	126	128	0.0051223482461667715	0.01182524679689141	0	100	100	100	0	0	1	-360	360;
	128	129	0.0062061541692921655	0.014326296996429322	0	100	100	100	0	0	1	-360	360;
	128	130	0.007289434992648603	0.016827872295736186	0	100	100	100	0	0	1	-360	360;
	130	131	0.0022658055030455784	0.005230518798571729	0	100	100	100	0	0	1	-360	360;
	131	132	0.004826717076244486	0.011142617097248477	0	100	100	100	0	0	1	-360	360;
	132	133	0.008471959672337744	0.01955681579500105	0	100	100	100	0	0	1	-360	360;
	133	134	0.019865574459147235	0.01983564377231674	0	100	100	100	0	0	1	-360	360;
	134	135	0.02085906322201218	0.020827557235874813	0	100	100	100	0	0	1	-360	360;
	135	136	0.015395925225792901	0.015372820835958832	0	100	100	100	0	0	1	-360	360;
	8	74	0.006895610165931526	0.01591839949590422	0	100	100	100	0	0	0	-360	360;
	10	25	0.013934047469019111	0.007329342575089267	0	100	100	100	0	0	0	-360	360;
	16	84	0.007449590422180213	0.007438563327032136	0	100	100	100	0	0	0	-360	360;
	39	136	0.004469649233354337	0.004462822936357908	0	100	100	100	0	0	0	-360	360;
	26	52	0.0023639991598403695	0.00545788699852972	0	100	100	100	0	0	0	-360	360;
	51	97	0.007449590422180213	0.007438563327032136	0	100	100	100	0	0	0	-360	360;
	56	99	0.007449590422180213	0.007438563327032136	0	100	100	100	0	0	0	-360	360;
	63	121	0.0020688930896870404	0.0047752572988867875	0	100	100	100	0	0	0	-360	360;
	67	80	0.0067968914093677795	0.015691031295946227	0	100	100	100	0	0	0	-360	360;
	80	132	0.0008863684099978995	0.0020468388993908843	0	100	100	100	0	0	0	-360	360;
	85	136	0.01741755933627389	0.00916194076874606	0	100	100	100	0	0	0	-360	360;
	92	105	0.007449590422180213	0.007438563327032136	0	100	100	100	0	0	0	-360	360;
	91	130	0.004039067422810334	0.00932367149758454	0	100	100	100	0	0	0	-360	360;
	91	104	0.004039067422810334	0.00932367149758454	0	100	100	100	0	0	0	-360	360;
	93	105	0.004039067422810334	0.00932367149758454	0	100	100	100	0	0	0	-360	360;
	93	133	0.004039067422810334	0.00932367149758454	0	100	100	100	0	0	0	-360	360;
	97	121	0.013905692081495483	0.013885213190506195	0	100	100	100	0	0	0	-360	360;
	111	48	0.026095358118042426	0.03390411678218861	0	100	100	100	0	0	0	-360	360;
	127	77	0.008957676958622138	0.0047117202268431	0	100	100	100	0	0	0	-360	360;
	129	78	0.002758349086326402	0.006367359798361689	0	100	100	100	0	0	0	-360	360;
	136	99	0.015395925225792901	0.015372820835958832	0	100	100	100	0	0	0	-360	360;
];

mpc.gencost = [
	2	0	0	3	0	20	0;
];
